*SPEF "IEEE 1481-1998"
*DESIGN "Faulty_EVM"
*DATE "Thu Nov 20 02:10:35 pm 2025"
*VENDOR "Cadence Design Systems"
*PROGRAM "Genus(TM) Synthesis Solution"
*VERSION "20.10-p001_1"
*DESIGN_FLOW "PIN_CAP NONE" "NAME_SCOPE LOCAL"
*DIVIDER /
*DELIMITER :
*BUS_DELIMITER []
*T_UNIT 1 NS
*C_UNIT 1 PF
*R_UNIT 1 OHM
*L_UNIT 1 HENRY
// Wireload mode: enclosed

*NAME_MAP

*1 clk
*2 reset
*3 A_Push
*4 B_Push
*5 C_Push
*6 ballot_signal
*7 show_result
*8 A_Led
*9 B_Led
*10 C_Led
*11 buzzer_output
*12 limit_exceeded
*13 A_Count[7]
*14 A_Count[6]
*15 A_Count[5]
*16 A_Count[4]
*17 A_Count[3]
*18 A_Count[2]
*19 A_Count[1]
*20 A_Count[0]
*21 B_Count[7]
*22 B_Count[6]
*23 B_Count[5]
*24 B_Count[4]
*25 B_Count[3]
*26 B_Count[2]
*27 B_Count[1]
*28 B_Count[0]
*29 C_Count[7]
*30 C_Count[6]
*31 C_Count[5]
*32 C_Count[4]
*33 C_Count[3]
*34 C_Count[2]
*35 C_Count[1]
*36 C_Count[0]
*37 A_Count[0]
*38 A_Count[1]
*39 A_Count[2]
*40 A_Count[3]
*41 A_Count[4]
*42 A_Count[5]
*43 A_Count[6]
*44 A_Count[7]
*45 A_Vote[0]
*46 A_Vote[1]
*47 A_Vote[2]
*48 A_Vote[3]
*49 A_Vote[4]
*50 A_Vote[5]
*51 A_Vote[6]
*52 A_Vote[7]
*53 B_Count[0]
*54 B_Count[1]
*55 B_Count[2]
*56 B_Count[3]
*57 B_Count[4]
*58 B_Count[5]
*59 B_Count[6]
*60 B_Count[7]
*61 B_Vote[0]
*62 B_Vote[1]
*63 B_Vote[2]
*64 B_Vote[3]
*65 B_Vote[4]
*66 B_Vote[5]
*67 B_Vote[6]
*68 B_Vote[7]
*69 C_Count[0]
*70 C_Count[1]
*71 C_Count[2]
*72 C_Count[3]
*73 C_Count[4]
*74 C_Count[5]
*75 C_Count[6]
*76 C_Count[7]
*77 C_Vote[0]
*78 C_Vote[1]
*79 C_Vote[2]
*80 C_Vote[3]
*81 C_Vote[4]
*82 C_Vote[5]
*83 C_Vote[6]
*84 C_Vote[7]
*85 buzzer_count[0]
*86 buzzer_count[1]
*87 buzzer_output
*88 limit_exceeded
*89 state[0]
*90 state[1]
*91 vote_count[0]
*92 vote_count[1]
*93 vote_count[2]
*94 vote_count[3]
*95 vote_count[4]
*96 vote_count[5]
*97 vote_count[6]
*98 vote_count[7]
*99 voted
*100 n_0
*101 n_1
*102 n_2
*103 n_3
*104 n_4
*105 n_5
*106 n_6
*107 n_7
*108 n_8
*109 n_9
*110 n_10
*111 n_11
*112 n_12
*113 n_13
*114 n_14
*115 n_15
*116 n_16
*117 n_17
*118 n_18
*119 n_19
*120 n_20
*121 n_21
*122 n_22
*123 n_23
*124 n_24
*125 n_25
*126 n_26
*127 n_27
*128 n_28
*129 n_29
*130 n_30
*131 n_31
*132 n_32
*133 n_33
*134 n_34
*135 n_35
*136 n_36
*137 n_37
*138 n_38
*139 n_39
*140 n_40
*141 n_41
*142 n_42
*143 n_43
*144 n_44
*145 n_45
*146 n_46
*147 n_47
*148 n_48
*149 n_49
*150 n_50
*151 n_51
*152 n_52
*153 n_53
*154 n_54
*155 n_55
*156 n_56
*157 n_57
*158 n_58
*159 n_59
*160 n_60
*161 n_61
*162 n_62
*163 n_63
*164 n_64
*165 n_65
*166 n_66
*167 n_67
*168 n_68
*169 n_69
*170 n_70
*171 n_71
*172 n_72
*173 n_73
*174 n_74
*175 n_75
*176 n_76
*177 n_77
*178 n_78
*179 n_79
*180 n_80
*181 n_81
*182 n_82
*183 n_83
*184 n_84
*185 n_85
*186 n_86
*187 n_87
*188 n_88
*189 n_89
*190 n_90
*191 n_91
*192 n_92
*193 n_93
*194 n_94
*195 n_95
*196 n_96
*197 n_97
*198 n_98
*199 n_99
*200 n_100
*201 n_101
*202 n_102
*203 n_103
*204 n_104
*205 n_105
*206 n_106
*207 n_107
*208 n_108
*209 n_109
*210 n_110
*211 n_111
*212 n_112
*213 n_114
*214 n_115
*215 n_116
*216 n_117
*217 n_118
*218 n_119
*219 n_120
*220 n_121
*221 n_122
*222 n_123
*223 n_124
*224 n_125
*225 n_126
*226 n_127
*227 n_128
*228 n_129
*229 n_130
*230 n_131
*231 n_132
*232 n_133
*233 n_134
*234 n_135
*235 n_136
*236 n_137
*237 n_138
*238 n_139
*239 n_140
*240 n_141
*241 n_142
*242 n_143
*243 n_144
*244 n_145
*245 n_146
*246 n_147
*247 n_148
*248 n_149
*249 n_150
*250 n_151
*251 n_152
*252 n_153
*253 clk
*254 ballot_signal
*255 A_Push
*256 B_Push
*257 C_Push
*258 show_result
*259 reset
*260 n_161
*261 A_Vote_reg[7]
*262 C_Vote_reg[7]
*263 B_Vote_reg[7]
*264 A_Vote_reg[6]
*265 C_Vote_reg[6]
*266 B_Vote_reg[6]
*267 g2993__2398
*268 g2994__5107
*269 g2995__6260
*270 A_Vote_reg[3]
*271 C_Vote_reg[5]
*272 B_Vote_reg[5]
*273 A_Vote_reg[4]
*274 C_Vote_reg[4]
*275 B_Vote_reg[4]
*276 A_Vote_reg[5]
*277 B_Vote_reg[1]
*278 B_Vote_reg[3]
*279 C_Vote_reg[2]
*280 C_Vote_reg[1]
*281 C_Vote_reg[3]
*282 B_Vote_reg[2]
*283 A_Vote_reg[2]
*284 A_Vote_reg[1]
*285 g3000__4319
*286 g3001__8428
*287 g2996__5526
*288 g2999__6783
*289 g2998__3680
*290 g2997__1617
*291 vote_count_reg[7]
*292 g3006__2802
*293 g3021__1705
*294 g3022__5122
*295 g3020__8246
*296 g3059__7098
*297 g3062__6131
*298 g3005__1881
*299 g3071__5115
*300 C_Vote_reg[0]
*301 g3072__7482
*302 g3007__4733
*303 g3076__6161
*304 g3077__9315
*305 g3042__9945
*306 g3043__2883
*307 g3044__2346
*308 vote_count_reg[5]
*309 vote_count_reg[3]
*310 A_Vote_reg[0]
*311 B_Vote_reg[0]
*312 vote_count_reg[4]
*313 g3028__1666
*314 g3060__7410
*315 g3061__6417
*316 g3026__5477
*317 g3027__2398
*318 g3065__6260
*319 g3078__4319
*320 g3079__8428
*321 g3009__5526
*322 g3008__6783
*323 g3084__3680
*324 g3082__1617
*325 g3013__2802
*326 g3083__1705
*327 g3011__5122
*328 g3081__8246
*329 g3012__7098
*330 voted_reg
*331 g3010__6131
*332 state_reg[0]
*333 vote_count_reg[0]
*334 g3063__1881
*335 g3064__5115
*336 g3075__7482
*337 state_reg[1]
*338 g3014
*339 g3015
*340 g3016
*341 g3087__4733
*342 g3090__6161
*343 g3073__9315
*344 g3080
*345 g3025__9945
*346 g3024__2883
*347 g3023__2346
*348 g3085__1666
*349 g3089__7410
*350 g3088__6417
*351 g3086__5477
*352 g3092
*353 g3091
*354 g3102__2398
*355 g3099__5107
*356 g3098__6260
*357 g3106__4319
*358 g3104__8428
*359 g3103__5526
*360 limit_exceeded_reg
*361 g3105__6783
*362 g3101__3680
*363 g3100__1617
*364 g3111
*365 g3119__2802
*366 g3093__1705
*367 g3030
*368 g3031
*369 g3029
*370 g3112__5122
*371 g3113__8246
*372 g3049__7098
*373 g3115__6131
*374 g3118__1881
*375 g3117__5115
*376 g3066__7482
*377 g3067__4733
*378 g3114__6161
*379 g3116__9315
*380 g3139
*381 g3138
*382 g3140__9945
*383 g3150__2883
*384 buzzer_count_reg[1]
*385 g3149__2346
*386 g3152__1666
*387 g3151__7410
*388 g3148__6417
*389 buzzer_count_reg[0]
*390 g3068
*391 g3070
*392 g3155__5477
*393 g3069
*394 g3154__2398
*395 g3156__5107
*396 g3120__6260
*397 g3157__4319
*398 B_Count_reg[2]
*399 C_Count_reg[1]
*400 g3107__8428
*401 C_Count_reg[0]
*402 B_Count_reg[6]
*403 g3097__5526
*404 A_Count_reg[1]
*405 A_Count_reg[0]
*406 B_Count_reg[3]
*407 g3158__6783
*408 A_Count_reg[3]
*409 B_Count_reg[5]
*410 g3164__3680
*411 g3096__1617
*412 B_Count_reg[0]
*413 B_Count_reg[1]
*414 A_Count_reg[2]
*415 C_Count_reg[4]
*416 C_Count_reg[3]
*417 C_Count_reg[5]
*418 A_Count_reg[7]
*419 B_Count_reg[4]
*420 C_Count_reg[7]
*421 A_Count_reg[5]
*422 C_Count_reg[2]
*423 A_Count_reg[6]
*424 C_Count_reg[6]
*425 A_Count_reg[4]
*426 B_Count_reg[7]
*427 g3162__2802
*428 g3163__1705
*429 g3172__5122
*430 g3166__8246
*431 g3108
*432 g3109
*433 g3110
*434 g3171__7098
*435 buzzer_output_reg
*436 g3170__6131
*437 g3176__1881
*438 g3160__5115
*439 g3161__7482
*440 g3165__4733
*441 g3173__6161
*442 g3174__9315
*443 g3177__9945
*444 g3178__2883
*445 g3180__2346
*446 g3181__1666
*447 g3175__7410
*448 g3179__6417
*449 g3167
*450 g3168
*451 g3182__5477
*452 g3190
*453 g3169
*454 g3183__2398
*455 g3184
*456 g3191
*457 g3185__5107
*458 g3186__6260
*459 g3187__4319
*460 g3195__8428
*461 g3189__5526
*462 g3188__6783
*463 g3194__3680
*464 g3192__1617
*465 g3193__2802
*466 g3196__1705
*467 g3201
*468 g3199
*469 g3203
*470 g3200
*471 g2
*472 vote_count_reg[6]
*473 vote_count_reg[2]
*474 vote_count_reg[1]

*PORTS

*1 I
*2 I
*3 I
*4 I
*5 I
*6 I
*7 I
*8 O
*9 O
*10 O
*11 O
*12 O
*13 O
*14 O
*15 O
*16 O
*17 O
*18 O
*19 O
*20 O
*21 O
*22 O
*23 O
*24 O
*25 O
*26 O
*27 O
*28 O
*29 O
*30 O
*31 O
*32 O
*33 O
*34 O
*35 O
*36 O

*D_NET *37 0.000000

*CONN
*I *405:SI I *L 0.0004 *D SDFFRHQX1
*P *20 O
*I *405:Q O *L 0.0000 *D SDFFRHQX1

*CAP
1 *405:SI 0
2 *20 0

*RES
1 *405:Q *405:SI 0
2 *405:Q *20 0
*END

*D_NET *38 0.000000

*CONN
*I *404:SI I *L 0.0004 *D SDFFRHQX1
*P *19 O
*I *404:Q O *L 0.0000 *D SDFFRHQX1

*CAP
1 *404:SI 0
2 *19 0

*RES
1 *404:Q *404:SI 0
2 *404:Q *19 0
*END

*D_NET *39 0.000000

*CONN
*I *414:SI I *L 0.0004 *D SDFFRHQX1
*P *18 O
*I *414:Q O *L 0.0000 *D SDFFRHQX1

*CAP
1 *414:SI 0
2 *18 0

*RES
1 *414:Q *414:SI 0
2 *414:Q *18 0
*END

*D_NET *40 0.000000

*CONN
*I *408:SI I *L 0.0004 *D SDFFRHQX1
*P *17 O
*I *408:Q O *L 0.0000 *D SDFFRHQX1

*CAP
1 *408:SI 0
2 *17 0

*RES
1 *408:Q *408:SI 0
2 *408:Q *17 0
*END

*D_NET *41 0.000000

*CONN
*I *425:SI I *L 0.0004 *D SDFFRHQX1
*P *16 O
*I *425:Q O *L 0.0000 *D SDFFRHQX1

*CAP
1 *425:SI 0
2 *16 0

*RES
1 *425:Q *425:SI 0
2 *425:Q *16 0
*END

*D_NET *42 0.000000

*CONN
*I *421:SI I *L 0.0004 *D SDFFRHQX1
*P *15 O
*I *421:Q O *L 0.0000 *D SDFFRHQX1

*CAP
1 *421:SI 0
2 *15 0

*RES
1 *421:Q *421:SI 0
2 *421:Q *15 0
*END

*D_NET *43 0.000000

*CONN
*I *423:SI I *L 0.0004 *D SDFFRHQX1
*P *14 O
*I *423:Q O *L 0.0000 *D SDFFRHQX1

*CAP
1 *423:SI 0
2 *14 0

*RES
1 *423:Q *423:SI 0
2 *423:Q *14 0
*END

*D_NET *44 0.000000

*CONN
*I *418:SI I *L 0.0004 *D SDFFRHQX1
*P *13 O
*I *418:Q O *L 0.0000 *D SDFFRHQX1

*CAP
1 *418:SI 0
2 *13 0

*RES
1 *418:Q *418:SI 0
2 *418:Q *13 0
*END

*D_NET *45 0.000000

*CONN
*I *328:A0 I *L 0.0004 *D OAI211X1
*I *310:SE I *L 0.0006 *D SDFFRHQX1
*I *405:D I *L 0.0004 *D SDFFRHQX1
*I *459:B I *L 0.0004 *D NAND2X1
*I *310:Q O *L 0.0000 *D SDFFRHQX1

*CAP
1 *328:A0 0
2 *310:SE 0
3 *405:D 0
4 *459:B 0

*RES
1 *310:Q *328:A0 0
2 *310:Q *310:SE 0
3 *310:Q *405:D 0
4 *310:Q *459:B 0
*END

*D_NET *46 0.000000

*CONN
*I *328:A1 I *L 0.0004 *D OAI211X1
*I *299:A0N I *L 0.0002 *D OAI2BB1X1
*I *404:D I *L 0.0004 *D SDFFRHQX1
*I *459:A I *L 0.0004 *D NAND2X1
*I *284:Q O *L 0.0000 *D DFFRHQX1

*CAP
1 *328:A1 0
2 *299:A0N 0
3 *404:D 0
4 *459:A 0

*RES
1 *284:Q *328:A1 0
2 *284:Q *299:A0N 0
3 *284:Q *404:D 0
4 *284:Q *459:A 0
*END

*D_NET *47 0.000000

*CONN
*I *323:A0 I *L 0.0004 *D OAI211X1
*I *303:A0N I *L 0.0002 *D OAI2BB1X1
*I *414:D I *L 0.0004 *D SDFFRHQX1
*I *440:A I *L 0.0004 *D NAND2X1
*I *283:Q O *L 0.0000 *D DFFRHQX1

*CAP
1 *323:A0 0
2 *303:A0N 0
3 *414:D 0
4 *440:A 0

*RES
1 *283:Q *323:A0 0
2 *283:Q *303:A0N 0
3 *283:Q *414:D 0
4 *283:Q *440:A 0
*END

*D_NET *48 0.000000

*CONN
*I *315:A0 I *L 0.0004 *D OAI211X1
*I *305:A0N I *L 0.0002 *D OAI2BB1X1
*I *400:A I *L 0.0004 *D NAND2X1
*I *408:D I *L 0.0004 *D SDFFRHQX1
*I *270:Q O *L 0.0000 *D DFFRHQX1

*CAP
1 *315:A0 0
2 *305:A0N 0
3 *400:A 0
4 *408:D 0

*RES
1 *270:Q *315:A0 0
2 *270:Q *305:A0N 0
3 *270:Q *400:A 0
4 *270:Q *408:D 0
*END

*D_NET *49 0.000000

*CONN
*I *316:A0 I *L 0.0004 *D OAI211X1
*I *293:A0N I *L 0.0002 *D OAI2BB1X1
*I *372:A I *L 0.0004 *D NAND2X1
*I *425:D I *L 0.0004 *D SDFFRHQX1
*I *273:Q O *L 0.0000 *D DFFRHQX1

*CAP
1 *316:A0 0
2 *293:A0N 0
3 *372:A 0
4 *425:D 0

*RES
1 *273:Q *316:A0 0
2 *273:Q *293:A0N 0
3 *273:Q *372:A 0
4 *273:Q *425:D 0
*END

*D_NET *50 0.000000

*CONN
*I *327:A0 I *L 0.0004 *D OAI211X1
*I *292:A0N I *L 0.0002 *D OAI2BB1X1
*I *347:A I *L 0.0004 *D NAND2X1
*I *421:D I *L 0.0004 *D SDFFRHQX1
*I *276:Q O *L 0.0000 *D DFFRHQX1

*CAP
1 *327:A0 0
2 *292:A0N 0
3 *347:A 0
4 *421:D 0

*RES
1 *276:Q *327:A0 0
2 *276:Q *292:A0N 0
3 *276:Q *347:A 0
4 *276:Q *421:D 0
*END

*D_NET *51 0.000000

*CONN
*I *288:A0 I *L 0.0004 *D OAI211X1
*I *268:A0N I *L 0.0002 *D OAI2BB1X1
*I *322:A I *L 0.0004 *D NAND2X1
*I *423:D I *L 0.0004 *D SDFFRHQX1
*I *264:Q O *L 0.0000 *D DFFRHQX1

*CAP
1 *288:A0 0
2 *268:A0N 0
3 *322:A 0
4 *423:D 0

*RES
1 *264:Q *288:A0 0
2 *264:Q *268:A0N 0
3 *264:Q *322:A 0
4 *264:Q *423:D 0
*END

*D_NET *52 0.000000

*CONN
*I *287:A I *L 0.0002 *D XNOR2X1
*I *261:SI I *L 0.0004 *D SDFFRHQX1
*I *418:D I *L 0.0004 *D SDFFRHQX1
*I *261:Q O *L 0.0000 *D SDFFRHQX1

*CAP
1 *287:A 0
2 *261:SI 0
3 *418:D 0

*RES
1 *261:Q *287:A 0
2 *261:Q *261:SI 0
3 *261:Q *418:D 0
*END

*D_NET *53 0.000000

*CONN
*I *412:SI I *L 0.0004 *D SDFFRHQX1
*P *28 O
*I *412:Q O *L 0.0000 *D SDFFRHQX1

*CAP
1 *412:SI 0
2 *28 0

*RES
1 *412:Q *412:SI 0
2 *412:Q *28 0
*END

*D_NET *54 0.000000

*CONN
*I *413:SI I *L 0.0004 *D SDFFRHQX1
*P *27 O
*I *413:Q O *L 0.0000 *D SDFFRHQX1

*CAP
1 *413:SI 0
2 *27 0

*RES
1 *413:Q *413:SI 0
2 *413:Q *27 0
*END

*D_NET *55 0.000000

*CONN
*I *398:SI I *L 0.0004 *D SDFFRHQX1
*P *26 O
*I *398:Q O *L 0.0000 *D SDFFRHQX1

*CAP
1 *398:SI 0
2 *26 0

*RES
1 *398:Q *398:SI 0
2 *398:Q *26 0
*END

*D_NET *56 0.000000

*CONN
*I *406:SI I *L 0.0004 *D SDFFRHQX1
*P *25 O
*I *406:Q O *L 0.0000 *D SDFFRHQX1

*CAP
1 *406:SI 0
2 *25 0

*RES
1 *406:Q *406:SI 0
2 *406:Q *25 0
*END

*D_NET *57 0.000000

*CONN
*I *419:SI I *L 0.0004 *D SDFFRHQX1
*P *24 O
*I *419:Q O *L 0.0000 *D SDFFRHQX1

*CAP
1 *419:SI 0
2 *24 0

*RES
1 *419:Q *419:SI 0
2 *419:Q *24 0
*END

*D_NET *58 0.000000

*CONN
*I *409:SI I *L 0.0004 *D SDFFRHQX1
*P *23 O
*I *409:Q O *L 0.0000 *D SDFFRHQX1

*CAP
1 *409:SI 0
2 *23 0

*RES
1 *409:Q *409:SI 0
2 *409:Q *23 0
*END

*D_NET *59 0.000000

*CONN
*I *402:SI I *L 0.0004 *D SDFFRHQX1
*P *22 O
*I *402:Q O *L 0.0000 *D SDFFRHQX1

*CAP
1 *402:SI 0
2 *22 0

*RES
1 *402:Q *402:SI 0
2 *402:Q *22 0
*END

*D_NET *60 0.000000

*CONN
*I *426:SI I *L 0.0004 *D SDFFRHQX1
*P *21 O
*I *426:Q O *L 0.0000 *D SDFFRHQX1

*CAP
1 *426:SI 0
2 *21 0

*RES
1 *426:Q *426:SI 0
2 *426:Q *21 0
*END

*D_NET *61 0.000000

*CONN
*I *324:A0 I *L 0.0004 *D OAI211X1
*I *311:SE I *L 0.0006 *D SDFFRHQX1
*I *412:D I *L 0.0004 *D SDFFRHQX1
*I *463:B I *L 0.0004 *D NAND2X1
*I *311:Q O *L 0.0000 *D SDFFRHQX1

*CAP
1 *324:A0 0
2 *311:SE 0
3 *412:D 0
4 *463:B 0

*RES
1 *311:Q *324:A0 0
2 *311:Q *311:SE 0
3 *311:Q *412:D 0
4 *311:Q *463:B 0
*END

*D_NET *62 0.000000

*CONN
*I *324:A1 I *L 0.0004 *D OAI211X1
*I *301:A0N I *L 0.0002 *D OAI2BB1X1
*I *413:D I *L 0.0004 *D SDFFRHQX1
*I *463:A I *L 0.0004 *D NAND2X1
*I *277:Q O *L 0.0000 *D DFFRHQX1

*CAP
1 *324:A1 0
2 *301:A0N 0
3 *413:D 0
4 *463:A 0

*RES
1 *277:Q *324:A1 0
2 *277:Q *301:A0N 0
3 *277:Q *413:D 0
4 *277:Q *463:A 0
*END

*D_NET *63 0.000000

*CONN
*I *326:A0 I *L 0.0004 *D OAI211X1
*I *304:A0N I *L 0.0002 *D OAI2BB1X1
*I *398:D I *L 0.0004 *D SDFFRHQX1
*I *438:A I *L 0.0004 *D NAND2X1
*I *282:Q O *L 0.0000 *D DFFRHQX1

*CAP
1 *326:A0 0
2 *304:A0N 0
3 *398:D 0
4 *438:A 0

*RES
1 *282:Q *326:A0 0
2 *282:Q *304:A0N 0
3 *282:Q *398:D 0
4 *282:Q *438:A 0
*END

*D_NET *64 0.000000

*CONN
*I *314:A0 I *L 0.0004 *D OAI211X1
*I *307:A0N I *L 0.0002 *D OAI2BB1X1
*I *406:D I *L 0.0004 *D SDFFRHQX1
*I *411:A I *L 0.0004 *D NAND2X1
*I *278:Q O *L 0.0000 *D DFFRHQX1

*CAP
1 *314:A0 0
2 *307:A0N 0
3 *406:D 0
4 *411:A 0

*RES
1 *278:Q *314:A0 0
2 *278:Q *307:A0N 0
3 *278:Q *406:D 0
4 *278:Q *411:A 0
*END

*D_NET *65 0.000000

*CONN
*I *317:A0 I *L 0.0004 *D OAI211X1
*I *294:A0N I *L 0.0002 *D OAI2BB1X1
*I *377:A I *L 0.0004 *D NAND2X1
*I *419:D I *L 0.0004 *D SDFFRHQX1
*I *275:Q O *L 0.0000 *D DFFRHQX1

*CAP
1 *317:A0 0
2 *294:A0N 0
3 *377:A 0
4 *419:D 0

*RES
1 *275:Q *317:A0 0
2 *275:Q *294:A0N 0
3 *275:Q *377:A 0
4 *275:Q *419:D 0
*END

*D_NET *66 0.000000

*CONN
*I *329:A0 I *L 0.0004 *D OAI211X1
*I *302:A0N I *L 0.0002 *D OAI2BB1X1
*I *345:A I *L 0.0004 *D NAND2X1
*I *409:D I *L 0.0004 *D SDFFRHQX1
*I *272:Q O *L 0.0000 *D DFFRHQX1

*CAP
1 *329:A0 0
2 *302:A0N 0
3 *345:A 0
4 *409:D 0

*RES
1 *272:Q *329:A0 0
2 *272:Q *302:A0N 0
3 *272:Q *345:A 0
4 *272:Q *409:D 0
*END

*D_NET *67 0.000000

*CONN
*I *285:A0 I *L 0.0004 *D OAI211X1
*I *269:A0N I *L 0.0002 *D OAI2BB1X1
*I *331:A I *L 0.0004 *D NAND2X1
*I *402:D I *L 0.0004 *D SDFFRHQX1
*I *266:Q O *L 0.0000 *D DFFRHQX1

*CAP
1 *285:A0 0
2 *269:A0N 0
3 *331:A 0
4 *402:D 0

*RES
1 *266:Q *285:A0 0
2 *266:Q *269:A0N 0
3 *266:Q *331:A 0
4 *266:Q *402:D 0
*END

*D_NET *68 0.000000

*CONN
*I *289:A I *L 0.0002 *D XNOR2X1
*I *263:SI I *L 0.0004 *D SDFFRHQX1
*I *426:D I *L 0.0004 *D SDFFRHQX1
*I *263:Q O *L 0.0000 *D SDFFRHQX1

*CAP
1 *289:A 0
2 *263:SI 0
3 *426:D 0

*RES
1 *263:Q *289:A 0
2 *263:Q *263:SI 0
3 *263:Q *426:D 0
*END

*D_NET *69 0.000000

*CONN
*I *401:SI I *L 0.0004 *D SDFFRHQX1
*P *36 O
*I *401:Q O *L 0.0000 *D SDFFRHQX1

*CAP
1 *401:SI 0
2 *36 0

*RES
1 *401:Q *401:SI 0
2 *401:Q *36 0
*END

*D_NET *70 0.000000

*CONN
*I *399:SI I *L 0.0004 *D SDFFRHQX1
*P *35 O
*I *399:Q O *L 0.0000 *D SDFFRHQX1

*CAP
1 *399:SI 0
2 *35 0

*RES
1 *399:Q *399:SI 0
2 *399:Q *35 0
*END

*D_NET *71 0.000000

*CONN
*I *422:SI I *L 0.0004 *D SDFFRHQX1
*P *34 O
*I *422:Q O *L 0.0000 *D SDFFRHQX1

*CAP
1 *422:SI 0
2 *34 0

*RES
1 *422:Q *422:SI 0
2 *422:Q *34 0
*END

*D_NET *72 0.000000

*CONN
*I *416:SI I *L 0.0004 *D SDFFRHQX1
*P *33 O
*I *416:Q O *L 0.0000 *D SDFFRHQX1

*CAP
1 *416:SI 0
2 *33 0

*RES
1 *416:Q *416:SI 0
2 *416:Q *33 0
*END

*D_NET *73 0.000000

*CONN
*I *415:SI I *L 0.0004 *D SDFFRHQX1
*P *32 O
*I *415:Q O *L 0.0000 *D SDFFRHQX1

*CAP
1 *415:SI 0
2 *32 0

*RES
1 *415:Q *415:SI 0
2 *415:Q *32 0
*END

*D_NET *74 0.000000

*CONN
*I *417:SI I *L 0.0004 *D SDFFRHQX1
*P *31 O
*I *417:Q O *L 0.0000 *D SDFFRHQX1

*CAP
1 *417:SI 0
2 *31 0

*RES
1 *417:Q *417:SI 0
2 *417:Q *31 0
*END

*D_NET *75 0.000000

*CONN
*I *424:SI I *L 0.0004 *D SDFFRHQX1
*P *30 O
*I *424:Q O *L 0.0000 *D SDFFRHQX1

*CAP
1 *424:SI 0
2 *30 0

*RES
1 *424:Q *424:SI 0
2 *424:Q *30 0
*END

*D_NET *76 0.000000

*CONN
*I *420:SI I *L 0.0004 *D SDFFRHQX1
*P *29 O
*I *420:Q O *L 0.0000 *D SDFFRHQX1

*CAP
1 *420:SI 0
2 *29 0

*RES
1 *420:Q *420:SI 0
2 *420:Q *29 0
*END

*D_NET *77 0.000000

*CONN
*I *319:A0 I *L 0.0004 *D OAI211X1
*I *300:SE I *L 0.0006 *D SDFFRHQX1
*I *401:D I *L 0.0004 *D SDFFRHQX1
*I *462:B I *L 0.0004 *D NAND2X1
*I *300:Q O *L 0.0000 *D SDFFRHQX1

*CAP
1 *319:A0 0
2 *300:SE 0
3 *401:D 0
4 *462:B 0

*RES
1 *300:Q *319:A0 0
2 *300:Q *300:SE 0
3 *300:Q *401:D 0
4 *300:Q *462:B 0
*END

*D_NET *78 0.000000

*CONN
*I *319:A1 I *L 0.0004 *D OAI211X1
*I *297:A0N I *L 0.0002 *D OAI2BB1X1
*I *399:D I *L 0.0004 *D SDFFRHQX1
*I *462:A I *L 0.0004 *D NAND2X1
*I *280:Q O *L 0.0000 *D DFFRHQX1

*CAP
1 *319:A1 0
2 *297:A0N 0
3 *399:D 0
4 *462:A 0

*RES
1 *280:Q *319:A1 0
2 *280:Q *297:A0N 0
3 *280:Q *399:D 0
4 *280:Q *462:A 0
*END

*D_NET *79 0.000000

*CONN
*I *320:A0 I *L 0.0004 *D OAI211X1
*I *296:A0N I *L 0.0002 *D OAI2BB1X1
*I *422:D I *L 0.0004 *D SDFFRHQX1
*I *439:A I *L 0.0004 *D NAND2X1
*I *279:Q O *L 0.0000 *D DFFRHQX1

*CAP
1 *320:A0 0
2 *296:A0N 0
3 *422:D 0
4 *439:A 0

*RES
1 *279:Q *320:A0 0
2 *279:Q *296:A0N 0
3 *279:Q *422:D 0
4 *279:Q *439:A 0
*END

*D_NET *80 0.000000

*CONN
*I *318:A0 I *L 0.0004 *D OAI211X1
*I *306:A0N I *L 0.0002 *D OAI2BB1X1
*I *403:A I *L 0.0004 *D NAND2X1
*I *416:D I *L 0.0004 *D SDFFRHQX1
*I *281:Q O *L 0.0000 *D DFFRHQX1

*CAP
1 *318:A0 0
2 *306:A0N 0
3 *403:A 0
4 *416:D 0

*RES
1 *281:Q *318:A0 0
2 *281:Q *306:A0N 0
3 *281:Q *403:A 0
4 *281:Q *416:D 0
*END

*D_NET *81 0.000000

*CONN
*I *313:A0 I *L 0.0004 *D OAI211X1
*I *295:A0N I *L 0.0002 *D OAI2BB1X1
*I *376:A I *L 0.0004 *D NAND2X1
*I *415:D I *L 0.0004 *D SDFFRHQX1
*I *274:Q O *L 0.0000 *D DFFRHQX1

*CAP
1 *313:A0 0
2 *295:A0N 0
3 *376:A 0
4 *415:D 0

*RES
1 *274:Q *313:A0 0
2 *274:Q *295:A0N 0
3 *274:Q *376:A 0
4 *274:Q *415:D 0
*END

*D_NET *82 0.000000

*CONN
*I *325:A0 I *L 0.0004 *D OAI211X1
*I *298:A0N I *L 0.0002 *D OAI2BB1X1
*I *346:A I *L 0.0004 *D NAND2X1
*I *417:D I *L 0.0004 *D SDFFRHQX1
*I *271:Q O *L 0.0000 *D DFFRHQX1

*CAP
1 *325:A0 0
2 *298:A0N 0
3 *346:A 0
4 *417:D 0

*RES
1 *271:Q *325:A0 0
2 *271:Q *298:A0N 0
3 *271:Q *346:A 0
4 *271:Q *417:D 0
*END

*D_NET *83 0.000000

*CONN
*I *286:A0 I *L 0.0004 *D OAI211X1
*I *267:A0N I *L 0.0002 *D OAI2BB1X1
*I *321:A I *L 0.0004 *D NAND2X1
*I *424:D I *L 0.0004 *D SDFFRHQX1
*I *265:Q O *L 0.0000 *D DFFRHQX1

*CAP
1 *286:A0 0
2 *267:A0N 0
3 *321:A 0
4 *424:D 0

*RES
1 *265:Q *286:A0 0
2 *265:Q *267:A0N 0
3 *265:Q *321:A 0
4 *265:Q *424:D 0
*END

*D_NET *84 0.000000

*CONN
*I *290:A I *L 0.0002 *D XNOR2X1
*I *262:D I *L 0.0004 *D SDFFRHQX1
*I *420:D I *L 0.0004 *D SDFFRHQX1
*I *262:Q O *L 0.0000 *D SDFFRHQX1

*CAP
1 *290:A 0
2 *262:D 0
3 *420:D 0

*RES
1 *262:Q *290:A 0
2 *262:Q *262:D 0
3 *262:Q *420:D 0
*END

*D_NET *85 0.000000

*CONN
*I *437:A I *L 0.0004 *D NAND2X1
*I *429:A0 I *L 0.0002 *D OA21X1
*I *460:B I *L 0.0004 *D NAND2X1
*I *389:Q O *L 0.0000 *D DFFRHQX1

*CAP
1 *437:A 0
2 *429:A0 0
3 *460:B 0

*RES
1 *389:Q *437:A 0
2 *389:Q *429:A0 0
3 *389:Q *460:B 0
*END

*D_NET *86 0.000000

*CONN
*I *460:A I *L 0.0004 *D NAND2X1
*I *396:A I *L 0.0002 *D XNOR2X1
*I *384:Q O *L 0.0000 *D DFFRHQX1

*CAP
1 *460:A 0
2 *396:A 0

*RES
1 *384:Q *460:A 0
2 *384:Q *396:A 0
*END

*D_NET *87 0.000000

*CONN
*I *435:SI I *L 0.0004 *D SDFFRHQX1
*P *11 O
*I *435:Q O *L 0.0000 *D SDFFRHQX1

*CAP
1 *435:SI 0
2 *11 0

*RES
1 *435:Q *435:SI 0
2 *435:Q *11 0
*END

*D_NET *88 0.000000

*CONN
*I *370:A I *L 0.0002 *D OR2XL
*P *12 O
*I *360:Q O *L 0.0000 *D DFFRHQX1

*CAP
1 *370:A 0
2 *12 0

*RES
1 *360:Q *370:A 0
2 *360:Q *12 0
*END

*D_NET *89 0.000000

*CONN
*I *458:B I *L 0.0004 *D NAND2X1
*I *448:C I *L 0.0004 *D NOR3X1
*I *461:AN I *L 0.0002 *D NAND2BX1
*I *466:AN I *L 0.0002 *D NOR2BX1
*I *332:Q O *L 0.0000 *D DFFRHQX1

*CAP
1 *458:B 0
2 *448:C 0
3 *461:AN 0
4 *466:AN 0

*RES
1 *332:Q *458:B 0
2 *332:Q *448:C 0
3 *332:Q *461:AN 0
4 *332:Q *466:AN 0
*END

*D_NET *90 0.000000

*CONN
*I *458:A I *L 0.0004 *D NAND2X1
*I *448:B I *L 0.0004 *D NOR3X1
*I *461:B I *L 0.0004 *D NAND2BX1
*I *466:B I *L 0.0004 *D NOR2BX1
*I *337:Q O *L 0.0000 *D DFFRHQX1

*CAP
1 *458:A 0
2 *448:B 0
3 *461:B 0
4 *466:B 0

*RES
1 *337:Q *458:A 0
2 *337:Q *448:B 0
3 *337:Q *461:B 0
4 *337:Q *466:B 0
*END

*D_NET *91 0.000000

*CONN
*I *354:S0 I *L 0.0004 *D MXI2XL
*I *333:D I *L 0.0004 *D SDFFRHQX1
*I *386:B I *L 0.0002 *D NAND2BXL
*I *444:B I *L 0.0002 *D OR4X1
*I *465:B I *L 0.0004 *D NAND2X1
*I *333:Q O *L 0.0000 *D SDFFRHQX1

*CAP
1 *354:S0 0
2 *333:D 0
3 *386:B 0
4 *444:B 0
5 *465:B 0

*RES
1 *333:Q *354:S0 0
2 *333:Q *333:D 0
3 *333:Q *386:B 0
4 *333:Q *444:B 0
5 *333:Q *465:B 0
*END

*D_NET *92 0.000000

*CONN
*I *465:A I *L 0.0004 *D NAND2X1
*I *363:A I *L 0.0002 *D MX2XL
*I *474:Q O *L 0.0000 *D DFFRX1

*CAP
1 *465:A 0
2 *363:A 0

*RES
1 *474:Q *465:A 0
2 *474:Q *363:A 0
*END

*D_NET *93 0.000000

*CONN
*I *444:A I *L 0.0002 *D OR4X1
*I *362:A I *L 0.0002 *D XNOR2X1
*I *473:Q O *L 0.0000 *D DFFRX1

*CAP
1 *444:A 0
2 *362:A 0

*RES
1 *473:Q *444:A 0
2 *473:Q *362:A 0
*END

*D_NET *94 0.000000

*CONN
*I *342:A0 I *L 0.0004 *D OAI32X1
*I *309:D I *L 0.0004 *D SDFFRHQX1
*I *434:A I *L 0.0004 *D NOR2X1
*I *445:C I *L 0.0002 *D NAND3BXL
*I *469:A I *L 0.0004 *D INVX1
*I *309:Q O *L 0.0000 *D SDFFRHQX1

*CAP
1 *342:A0 0
2 *309:D 0
3 *434:A 0
4 *445:C 0
5 *469:A 0

*RES
1 *309:Q *342:A0 0
2 *309:Q *309:D 0
3 *309:Q *434:A 0
4 *309:Q *445:C 0
5 *309:Q *469:A 0
*END

*D_NET *95 0.000000

*CONN
*I *351:A0 I *L 0.0004 *D OAI31X1
*I *312:D I *L 0.0004 *D SDFFRHQX1
*I *366:B0 I *L 0.0004 *D OAI2BB1X1
*I *407:B I *L 0.0004 *D NAND2BX1
*I *464:B I *L 0.0004 *D NAND2X1
*I *312:Q O *L 0.0000 *D SDFFRHQX1

*CAP
1 *351:A0 0
2 *312:D 0
3 *366:B0 0
4 *407:B 0
5 *464:B 0

*RES
1 *312:Q *351:A0 0
2 *312:Q *312:D 0
3 *312:Q *366:B0 0
4 *312:Q *407:B 0
5 *312:Q *464:B 0
*END

*D_NET *96 0.000000

*CONN
*I *341:A0 I *L 0.0004 *D OAI31X1
*I *308:D I *L 0.0004 *D SDFFRHQX1
*I *358:B0 I *L 0.0004 *D OAI2BB1X1
*I *464:A I *L 0.0004 *D NAND2X1
*I *308:Q O *L 0.0000 *D SDFFRHQX1

*CAP
1 *341:A0 0
2 *308:D 0
3 *358:B0 0
4 *464:A 0

*RES
1 *308:Q *341:A0 0
2 *308:Q *308:D 0
3 *308:Q *358:B0 0
4 *308:Q *464:A 0
*END

*D_NET *97 0.000000

*CONN
*I *383:A I *L 0.0004 *D NAND2X1
*I *350:B0 I *L 0.0004 *D AOI32X1
*I *445:B I *L 0.0002 *D NAND3BXL
*I *472:Q O *L 0.0000 *D DFFRX1

*CAP
1 *383:A 0
2 *350:B0 0
3 *445:B 0

*RES
1 *472:Q *383:A 0
2 *472:Q *350:B0 0
3 *472:Q *445:B 0
*END

*D_NET *98 0.000000

*CONN
*I *336:A0 I *L 0.0004 *D OAI32X1
*I *291:D I *L 0.0004 *D SDFFRHQX1
*I *427:B I *L 0.0002 *D NAND3BXL
*I *468:A I *L 0.0004 *D INVX1
*I *291:Q O *L 0.0000 *D SDFFRHQX1

*CAP
1 *336:A0 0
2 *291:D 0
3 *427:B 0
4 *468:A 0

*RES
1 *291:Q *336:A0 0
2 *291:Q *291:D 0
3 *291:Q *427:B 0
4 *291:Q *468:A 0
*END

*D_NET *99 0.000000

*CONN
*I *448:A I *L 0.0004 *D NOR3X1
*I *330:SI I *L 0.0004 *D SDFFRHQX1
*I *330:Q O *L 0.0000 *D SDFFRHQX1

*CAP
1 *448:A 0
2 *330:SI 0

*RES
1 *330:Q *448:A 0
2 *330:Q *330:SI 0
*END

*D_NET *100 0.000000

*CONN
*I *443:B I *L 0.0002 *D OR2X2
*I *467:Y O *L 0.0000 *D INVX1

*CAP
1 *443:B 0

*RES
1 *467:Y *443:B 0
*END

*D_NET *101 0.000000

*CONN
*I *446:B I *L 0.0004 *D NAND2X1
*I *457:Y O *L 0.0000 *D NOR2X1

*CAP
1 *446:B 0

*RES
1 *457:Y *446:B 0
*END

*D_NET *102 0.000000

*CONN
*I *324:B0 I *L 0.0004 *D OAI211X1
*I *453:A I *L 0.0004 *D INVX1
*I *463:Y O *L 0.0000 *D NAND2X1

*CAP
1 *324:B0 0
2 *453:A 0

*RES
1 *463:Y *324:B0 0
2 *463:Y *453:A 0
*END

*D_NET *103 0.000000

*CONN
*I *361:B0 I *L 0.0004 *D AOI221X1
*I *452:Y O *L 0.0000 *D INVX1

*CAP
1 *361:B0 0

*RES
1 *452:Y *361:B0 0
*END

*D_NET *104 0.000000

*CONN
*I *319:B0 I *L 0.0004 *D OAI211X1
*I *450:A I *L 0.0004 *D INVX1
*I *462:Y O *L 0.0000 *D NAND2X1

*CAP
1 *319:B0 0
2 *450:A 0

*RES
1 *462:Y *319:B0 0
2 *462:Y *450:A 0
*END

*D_NET *105 0.000000

*CONN
*I *328:B0 I *L 0.0004 *D OAI211X1
*I *449:A I *L 0.0004 *D INVX1
*I *459:Y O *L 0.0000 *D NAND2X1

*CAP
1 *328:B0 0
2 *449:A 0

*RES
1 *459:Y *328:B0 0
2 *459:Y *449:A 0
*END

*D_NET *106 0.000000

*CONN
*I *361:A0 I *L 0.0004 *D AOI221X1
*I *448:Y O *L 0.0000 *D NOR3X1

*CAP
1 *361:A0 0

*RES
1 *448:Y *361:A0 0
*END

*D_NET *107 0.000000

*CONN
*I *428:A I *L 0.0004 *D NOR3X1
*I *444:Y O *L 0.0000 *D OR4X1

*CAP
1 *428:A 0

*RES
1 *444:Y *428:A 0
*END

*D_NET *108 0.000000

*CONN
*I *441:A I *L 0.0004 *D NOR2X1
*I *443:A I *L 0.0002 *D OR2X2
*I *458:Y O *L 0.0000 *D NAND2X1

*CAP
1 *441:A 0
2 *443:A 0

*RES
1 *458:Y *441:A 0
2 *458:Y *443:A 0
*END

*D_NET *109 0.000000

*CONN
*I *447:B I *L 0.0002 *D OR2X1
*I *385:A I *L 0.0004 *D NOR2X1
*I *442:B I *L 0.0004 *D NAND2X1
*I *465:Y O *L 0.0000 *D NAND2X1

*CAP
1 *447:B 0
2 *385:A 0
3 *442:B 0

*RES
1 *465:Y *447:B 0
2 *465:Y *385:A 0
3 *465:Y *442:B 0
*END

*D_NET *110 0.000000

*CONN
*I *447:A I *L 0.0002 *D OR2X1
*I *335:B0 I *L 0.0004 *D OAI32X1
*I *442:A I *L 0.0004 *D NAND2X1
*I *473:QN O *L 0.0000 *D DFFRX1

*CAP
1 *447:A 0
2 *335:B0 0
3 *442:A 0

*RES
1 *473:QN *447:A 0
2 *473:QN *335:B0 0
3 *473:QN *442:A 0
*END

*D_NET *111 0.000000

*CONN
*I *323:A1 I *L 0.0004 *D OAI211X1
*I *440:B I *L 0.0004 *D NAND2X1
*I *449:Y O *L 0.0000 *D INVX1

*CAP
1 *323:A1 0
2 *440:B 0

*RES
1 *449:Y *323:A1 0
2 *449:Y *440:B 0
*END

*D_NET *112 0.000000

*CONN
*I *320:A1 I *L 0.0004 *D OAI211X1
*I *439:B I *L 0.0004 *D NAND2X1
*I *450:Y O *L 0.0000 *D INVX1

*CAP
1 *320:A1 0
2 *439:B 0

*RES
1 *450:Y *320:A1 0
2 *450:Y *439:B 0
*END

*D_NET *113 0.000000

*CONN
*I *326:A1 I *L 0.0004 *D OAI211X1
*I *438:B I *L 0.0004 *D NAND2X1
*I *453:Y O *L 0.0000 *D INVX1

*CAP
1 *326:A1 0
2 *438:B 0

*RES
1 *453:Y *326:A1 0
2 *453:Y *438:B 0
*END

*D_NET *114 0.000000

*CONN
*I *342:B0 I *L 0.0004 *D OAI32X1
*I *436:A I *L 0.0002 *D OR2X1
*I *469:Y O *L 0.0000 *D INVX1

*CAP
1 *342:B0 0
2 *436:A 0

*RES
1 *469:Y *342:B0 0
2 *469:Y *436:A 0
*END

*D_NET *115 0.000000

*CONN
*I *427:C I *L 0.0002 *D NAND3BXL
*I *434:B I *L 0.0004 *D NOR2X1
*I *442:Y O *L 0.0000 *D NAND2X1

*CAP
1 *427:C 0
2 *434:B 0

*RES
1 *442:Y *427:C 0
2 *442:Y *434:B 0
*END

*D_NET *116 0.000000

*CONN
*I *387:A1 I *L 0.0004 *D OAI211X1
*I *434:Y O *L 0.0000 *D NOR2X1

*CAP
1 *387:A1 0

*RES
1 *434:Y *387:A1 0
*END

*D_NET *117 0.000000

*CONN
*I *323:B0 I *L 0.0004 *D OAI211X1
*I *433:A I *L 0.0004 *D INVX1
*I *440:Y O *L 0.0000 *D NAND2X1

*CAP
1 *323:B0 0
2 *433:A 0

*RES
1 *440:Y *323:B0 0
2 *440:Y *433:A 0
*END

*D_NET *118 0.000000

*CONN
*I *320:B0 I *L 0.0004 *D OAI211X1
*I *432:A I *L 0.0004 *D INVX1
*I *439:Y O *L 0.0000 *D NAND2X1

*CAP
1 *320:B0 0
2 *432:A 0

*RES
1 *439:Y *320:B0 0
2 *439:Y *432:A 0
*END

*D_NET *119 0.000000

*CONN
*I *326:B0 I *L 0.0004 *D OAI211X1
*I *431:A I *L 0.0004 *D INVX1
*I *438:Y O *L 0.0000 *D NAND2X1

*CAP
1 *326:B0 0
2 *431:A 0

*RES
1 *438:Y *326:B0 0
2 *438:Y *431:A 0
*END

*D_NET *120 0.000000

*CONN
*I *348:A0 I *L 0.0004 *D AOI21X1
*I *430:AN I *L 0.0002 *D NOR3BX1
*I *446:Y O *L 0.0000 *D NAND2X1

*CAP
1 *348:A0 0
2 *430:AN 0

*RES
1 *446:Y *348:A0 0
2 *446:Y *430:AN 0
*END

*D_NET *121 0.000000

*CONN
*I *396:B I *L 0.0004 *D XNOR2X1
*I *429:B0 I *L 0.0002 *D OA21X1
*I *437:Y O *L 0.0000 *D NAND2X1

*CAP
1 *396:B 0
2 *429:B0 0

*RES
1 *437:Y *396:B 0
2 *437:Y *429:B0 0
*END

*D_NET *122 0.000000

*CONN
*I *437:B I *L 0.0004 *D NAND2X1
*I *379:B0 I *L 0.0004 *D OAI21X1
*I *429:A1 I *L 0.0002 *D OA21X1
*I *455:Y O *L 0.0000 *D INVX1

*CAP
1 *437:B 0
2 *379:B0 0
3 *429:A1 0

*RES
1 *455:Y *437:B 0
2 *455:Y *379:B0 0
3 *455:Y *429:A1 0
*END

*D_NET *123 0.000000

*CONN
*I *389:D I *L 0.0003 *D DFFRHQX1
*I *429:Y O *L 0.0000 *D OA21X1

*CAP
1 *389:D 0

*RES
1 *429:Y *389:D 0
*END

*D_NET *124 0.000000

*CONN
*I *455:A I *L 0.0004 *D INVX1
*I *435:SE I *L 0.0006 *D SDFFRHQX1
*I *357:A1 I *L 0.0002 *D OA21X1
*I *428:C I *L 0.0004 *D NOR3X1
*I *461:Y O *L 0.0000 *D NAND2BX1

*CAP
1 *455:A 0
2 *435:SE 0
3 *357:A1 0
4 *428:C 0

*RES
1 *461:Y *455:A 0
2 *461:Y *435:SE 0
3 *461:Y *357:A1 0
4 *461:Y *428:C 0
*END

*D_NET *125 0.000000

*CONN
*I *427:AN I *L 0.0002 *D NAND3BXL
*I *428:B I *L 0.0004 *D NOR3X1
*I *445:Y O *L 0.0000 *D NAND3BXL

*CAP
1 *427:AN 0
2 *428:B 0

*RES
1 *445:Y *427:AN 0
2 *445:Y *428:B 0
*END

*D_NET *126 0.000000

*CONN
*I *314:A1 I *L 0.0004 *D OAI211X1
*I *411:B I *L 0.0004 *D NAND2X1
*I *431:Y O *L 0.0000 *D INVX1

*CAP
1 *314:A1 0
2 *411:B 0

*RES
1 *431:Y *314:A1 0
2 *431:Y *411:B 0
*END

*D_NET *127 0.000000

*CONN
*I *445:AN I *L 0.0002 *D NAND3BXL
*I *387:A0 I *L 0.0004 *D OAI211X1
*I *410:A I *L 0.0004 *D NOR2X1
*I *464:Y O *L 0.0000 *D NAND2X1

*CAP
1 *445:AN 0
2 *387:A0 0
3 *410:A 0

*RES
1 *464:Y *445:AN 0
2 *464:Y *387:A0 0
3 *464:Y *410:A 0
*END

*D_NET *128 0.000000

*CONN
*I *318:A1 I *L 0.0004 *D OAI211X1
*I *403:B I *L 0.0004 *D NAND2X1
*I *432:Y O *L 0.0000 *D INVX1

*CAP
1 *318:A1 0
2 *403:B 0

*RES
1 *432:Y *318:A1 0
2 *432:Y *403:B 0
*END

*D_NET *129 0.000000

*CONN
*I *315:A1 I *L 0.0004 *D OAI211X1
*I *400:B I *L 0.0004 *D NAND2X1
*I *433:Y O *L 0.0000 *D INVX1

*CAP
1 *315:A1 0
2 *400:B 0

*RES
1 *433:Y *315:A1 0
2 *433:Y *400:B 0
*END

*D_NET *130 0.000000

*CONN
*I *426:SE I *L 0.0006 *D SDFFRHQX1